case.m
% case_mpc.m - 自定义案例文件

% 母线数据
% [bus_num type V_mag V_angle V_max V_min]
case_mpc.bus = [
    1 3 1.0 0 1 1;
    2 1 1.0 0 1.05 0.95;
    3 1 1.0 0 1.05 0.95;
    4 1 1.0 0 1.05 0.95;
    5 1 1.0 0 1.05 0.95;
    6 1 1.0 0 1.05 0.95;
    7 1 1.0 0 1.05 0.95;
    8 1 1.0 0 1.05 0.95;
    9 1 1.0 0 1.05 0.95;
    10 1 1.0 0 1.05 0.95;
    11 1 1.0 0 1.05 0.95;
    12 1 1.0 0 1.05 0.95;
    13 1 1.0 0 1.05 0.95;
    14 1 1.0 0 1.05 0.95;
    15 1 1.0 0 1.05 0.95;
    16 1 1.0 0 1.05 0.95;
    17 1 1.0 0 1.05 0.95;
    18 1 1.0 0 1.05 0.95;
    19 1 1.0 0 1.05 0.95;
    20 1 1.0 0 1.05 0.95;
    21 1 1.0 0 1.05 0.95;
    22 1 1.0 0 1.05 0.95;
    23 1 1.0 0 1.05 0.95;
    24 1 1.0 0 1.05 0.95;
    25 1 1.0 0 1.05 0.95;
    26 1 1.0 0 1.05 0.95;
    27 1 1.0 0 1.05 0.95;
    28 1 1.0 0 1.05 0.95;
    29 1 1.0 0 1.05 0.95;
    30 1 1.0 0 1.05 0.95;
    31 1 1.0 0 1.05 0.95;
    32 1 1.0 0 1.05 0.95;
    33 1 1.0 0 1.05 0.95;
];

% 支路数据
% [from_bus to_bus r x b S_max I_max]
case_mpc.branch = [
    1 2 0.0922 0.0470 0 6 1000;
    2 3 0.4930 0.2511 0 6 1000;
    3 4 0.3660 0.1864 0 6 1000;
    4 5 0.3811 0.1941 0 6 1000;
    5 6 0.8190 0.7070 0 6 1000;
    6 7 0.1872 0.6188 0 4.5 1000;
    7 8 0.7114 0.2351 0 4.5 1000;
    8 9 1.0300 0.7400 0 4.5 1000;
    9 10 1.0440 0.7400 0 4.5 1000;
    10 11 0.1966 0.0650 0 4.5 1000;
    11 12 0.3744 0.1238 0 4.5 1000;
    12 13 1.4680 1.1550 0 4.5 1000;
    13 14 0.5416 0.7129 0 4.5 1000;
    14 15 0.5910 0.5260 0 4.5 1000;
    15 16 0.7463 0.5450 0 4.5 1000;
    16 17 1.2890 1.7210 0 4.5 1000;
    17 18 0.7320 0.5740 0 4.5 1000;
    2 19 0.1640 0.1565 0 4.5 1000;
    19 20 1.5042 1.3554 0 4.5 1000;
    20 21 0.4095 0.4784 0 4.5 1000;
    21 22 0.7089 0.9373 0 4.5 1000;
    3 23 0.4512 0.3083 0 4.5 1000;
    23 24 0.8980 0.7091 0 4.5 1000;
    24 25 0.8960 0.7011 0 4.5 1000;
    6 26 0.2030 0.1034 0 4.5 1000;
    26 27 0.2842 0.1447 0 4.5 1000;
    27 28 1.0590 0.9337 0 4.5 1000;
    28 29 0.8042 0.7006 0 4.5 1000;
    29 30 0.5075 0.2585 0 4.5 1000;
    30 31 0.9744 0.9630 0 4.5 1000;
    31 32 0.3105 0.3619 0 4.5 1000;
    32 33 0.3410 0.5302 0 4.5 1000;
];

% 发电机数据
% [conn_bus Pmax Pmin Qmax Qmin S a b c]
case_mpc.gen = [
    1 10 0 10 0 10 0 0 0;
];

% 光伏发电数据
% [conn_bus P_max P_min n S k a]
case_mpc.solar = [
    3 1.5 0 1 1.5 0 0;
    18 1.5 0 1 1.5 0 0;
    24 1.5 0 1 1.5 0 0;
];

% 风力发电数据
% [conn_bus P_max P_min n S k a]
case_mpc.wind = [
    7 1 0 1 1 0 0;
    13 1 0 1 1 0 0;
    30 1 0 1 1 0 0;
];

% 储存电站数据
% [conn_bus P_max P_min n S a b c]
case_mpc.storage = [
    6 0.2 0 1 0.8 0 0 0;
];

% 母线有功需求时段数据
case_mpc.pd_time = [
    0.08 0.2 0.23 0.34 0.32 0.2 0.18 0.24 0.23 0.23 0.22 0.2 0.19 0.19 0.35 0.82 1 0.91 0.88 0.72 0.32 0.19 0.16 0.17;
    0 0 0 0 0.3 0.81 0.98 0.88 0.77 0.73 0.73 0.825 0.825 0.97 0.97 1 0.81 0.73 0.73 0.7 0.26 0 0 0;
    0.85 0.85 0.85 0.91 0.91 0.92 0.95 1 1 0.91 0.83 0.83 0.96 0.91 0.91 0.92 0.92 0.935 0.935 0.93 0.93 0.84 0.84 0.84;
];

% 母线无功需求时段数据
case_mpc.qd_time = case_mpc.pd_time;

% 电价数据
case_mpc.price = [
    0.3344 0.3344 0.3344 0.3344 0.3344 0.3344 0.3344 0.5636 0.64 0.64 0.64 0.64 0.64 0.64 0.937975 1.0373 1.0373 1.0373 1.0373 1.0373 1.0373 1.0373 0.64 0.3344;
];

% 光伏日出力时段数据
case_mpc.solar_time = [
    0 0 0 0 0 0 0 0 0.0113 0.021 0.0408 0.1794 0.2372 0.2399 0.2165 0.162 0.0837 0.0058 0 0 0 0 0 0;
    0 0 0 0 0 0 0 0 0.0113 0.021 0.0408 0.1794 0.2372 0.2399 0.2165 0.162 0.0837 0.0058 0 0 0 0 0 0;
    0 0 0 0 0 0 0 0 0.0113 0.021 0.0408 0.1794 0.2372 0.2399 0.2165 0.162 0.0837 0.0058 0 0 0 0 0 0;
];

% 风力日出力时段数据
case_mpc.wind_time = [
    0.1318 0.1092 0.044 0.0428 0.0318 0 0.053 0.0117 0 0 0 0 0.0379 0.1 0.1 0.1 0.1 0.0919 0.0889 0.1 0.1 0.1 0.0437 0.0376;
    0.1318 0.1092 0.044 0.0428 0.0318 0 0.053 0.0117 0 0 0 0 0.0379 0.1 0.1 0.1 0.1 0.0919 0.0889 0.1 0.1 0.1 0.0437 0.0376;
    0.1318 0.1092 0.044 0.0428 0.0318 0 0.053 0.0117 0 0 0 0 0.0379 0.1 0.1 0.1 0.1 0.0919 0.0889 0.1 0.1 0.1 0.0437 0.0376;
];

% 自定义拓扑结构
case_mpc.topology = [
    1 2;
    2 3;
    3 4;
    4 5;
    5 6;
    6 7;
    7 8;
    8 9;
    9 10;
    10 11;
    11 12;
    12 13;
    13 14;
    14 15;
    15 16;
    16 17;
    1 18;
    18 19;
    19 20;
    20 21;
    2 22;
    22 23;
    23 24;
    5 25;
    25 26;
    26 27;
    27 28;
    28 29;
    29 30;
    30 31;
    31 32;
    32 33;
];